Version 4
SHEET 1 2744 964
WIRE -832 -96 -832 -112
WIRE -832 0 -832 -32
WIRE -656 32 -656 0
WIRE -560 32 -560 0
WIRE -912 96 -960 96
WIRE -752 96 -832 96
WIRE -304 96 -368 96
WIRE -176 96 -176 48
WIRE -176 192 -176 160
WIRE -176 192 -368 192
WIRE -176 208 -176 192
WIRE 576 240 464 240
WIRE 704 240 656 240
WIRE 784 240 704 240
WIRE 928 240 864 240
WIRE 1008 240 928 240
WIRE 1328 240 1008 240
WIRE 1456 240 1328 240
WIRE -176 288 -176 272
WIRE -176 288 -368 288
WIRE -48 288 -176 288
WIRE 1456 288 1456 240
WIRE 928 368 928 240
WIRE -848 384 -864 384
WIRE -752 384 -768 384
WIRE -304 384 -368 384
WIRE 464 400 464 240
WIRE 1248 400 1168 400
WIRE 1408 400 1328 400
WIRE 704 416 704 240
WIRE 1008 416 1008 240
WIRE 1520 432 1488 432
WIRE 1616 432 1520 432
WIRE 1824 432 1696 432
WIRE 2064 432 1824 432
WIRE 2240 432 2064 432
WIRE 2240 464 2240 432
WIRE -1264 480 -1264 448
WIRE -912 480 -944 480
WIRE -752 480 -832 480
WIRE -320 480 -368 480
WIRE -256 480 -320 480
WIRE -144 480 -176 480
WIRE 1824 480 1824 432
WIRE -320 496 -320 480
WIRE 928 512 928 432
WIRE 1248 528 1168 528
WIRE 1408 528 1328 528
WIRE -16 544 -16 528
WIRE -1264 576 -1264 560
WIRE -1200 576 -1264 576
WIRE -752 576 -1200 576
WIRE -320 576 -320 560
WIRE -320 576 -368 576
WIRE 1824 576 1824 544
WIRE 2064 576 1824 576
WIRE 2240 576 2240 544
WIRE 2240 576 2064 576
WIRE -1264 592 -1264 576
WIRE -320 592 -320 576
WIRE 1824 608 1824 576
WIRE -864 672 -960 672
WIRE -784 672 -864 672
WIRE -752 672 -784 672
WIRE -288 672 -368 672
WIRE -16 672 -16 624
WIRE -16 672 -288 672
WIRE -1264 704 -1264 672
WIRE -864 704 -864 672
WIRE -16 704 -16 672
WIRE 464 704 464 480
WIRE 544 704 464 704
WIRE 704 704 704 480
WIRE 704 704 544 704
WIRE 928 704 928 592
WIRE 928 704 704 704
WIRE 1008 704 1008 480
WIRE 1008 704 928 704
WIRE 1456 704 1456 576
WIRE 1456 704 1008 704
WIRE 1824 704 1824 688
WIRE 1824 704 1456 704
WIRE 544 736 544 704
WIRE -640 752 -640 736
WIRE -480 752 -480 736
WIRE -960 768 -960 672
WIRE -864 816 -864 784
WIRE -16 832 -16 784
WIRE -960 896 -960 832
WIRE -864 896 -864 880
WIRE -864 896 -960 896
WIRE -864 928 -864 896
FLAG 2064 432 VOUT+
FLAG -640 752 0
FLAG -480 752 0
FLAG -864 384 0
FLAG -960 96 0
FLAG -288 672 Vfb
FLAG -784 672 ith
FLAG -864 928 0
FLAG 1328 240 VCC
FLAG -48 288 SW
FLAG -656 0 VCC
FLAG -560 0 5V
FLAG -1264 704 0
FLAG -1264 448 5V
FLAG -1200 576 Track2
FLAG -16 832 0
FLAG 2064 576 VOUT-
FLAG -320 592 0
FLAG -304 96 TG
FLAG -304 384 BG
FLAG -16 528 VOUT+
FLAG -144 480 VOUT-
FLAG 1168 400 TG
FLAG 1168 528 BG
FLAG -944 480 5V
FLAG 544 736 0
FLAG -176 48 5V
FLAG -832 0 0
FLAG -832 -112 5V
FLAG 1520 432 SW
FLAG 464 240 IN
SYMBOL ind 1600 448 R270
WINDOW 0 32 56 VTop 2
WINDOW 3 5 56 VBottom 2
SYMATTR InstName L1
SYMATTR Value 10µ
SYMATTR SpiceLine Rser=1.5m
SYMBOL cap 1808 480 R0
WINDOW 39 25 62 Left 2
WINDOW 3 37 34 Left 2
SYMATTR Value 23.5µ
SYMATTR InstName COUT1-5
SYMBOL res -32 528 R0
SYMATTR InstName R2
SYMATTR Value 499k
SYMBOL res -32 688 R0
SYMATTR InstName R5
SYMATTR Value 82k
SYMBOL cap -192 208 R0
SYMATTR InstName CBOOT1
SYMATTR Value 0.1µ
SYMATTR SpiceLine Rser=0.001
SYMBOL schottky -192 96 R0
WINDOW 3 20 64 Left 2
WINDOW 0 21 2 Left 2
SYMATTR Value RB521SM-60
SYMATTR InstName DS
SYMATTR Description Diode
SYMATTR Type diode
SYMBOL voltage -816 96 R90
WINDOW 3 20 93 Left 2
WINDOW 123 0 0 Left 0
WINDOW 39 0 0 Left 0
SYMATTR Value 5
SYMATTR InstName V2
SYMBOL PowerProducts\\LTC7800 -560 384 R0
SYMATTR InstName U1
SYMBOL cap -336 496 R0
SYMATTR InstName C9
SYMATTR Value 2n
SYMBOL res -160 464 R90
WINDOW 0 0 56 VBottom 2
WINDOW 3 32 56 VTop 2
SYMATTR InstName R19
SYMATTR Value 91
SYMBOL res -880 688 R0
SYMATTR InstName R6
SYMATTR Value 15k
SYMBOL cap -880 816 R0
SYMATTR InstName C2
SYMATTR Value 50n
SYMBOL ind 768 256 R270
WINDOW 0 32 56 VTop 2
WINDOW 3 5 56 VBottom 2
SYMATTR InstName L2
SYMATTR Value 1µ
SYMATTR SpiceLine Rser=0.01
SYMBOL cap 912 368 R0
SYMATTR InstName CC1
SYMATTR Value 1µ
SYMBOL res 912 496 R0
SYMATTR InstName R8
SYMATTR Value 5
SYMBOL cap 992 416 R0
SYMATTR InstName CC2-5
SYMATTR Value 4µ
SYMBOL res -1280 464 R0
SYMATTR InstName R20
SYMATTR Value 10k
SYMBOL res 1344 384 R90
WINDOW 0 0 56 VBottom 2
WINDOW 3 32 56 VTop 2
SYMATTR InstName RG1
SYMATTR Value 1.6
SYMBOL res 1344 512 R90
WINDOW 0 0 56 VBottom 2
WINDOW 3 32 56 VTop 2
SYMATTR InstName RG2
SYMATTR Value 1.6
SYMBOL cap 688 416 R0
SYMATTR InstName CIN1-5
SYMATTR Value 5µ
SYMATTR SpiceLine Rser=0.05
SYMBOL res -1280 576 R0
SYMATTR InstName RV2
SYMATTR Value 1.2k
SYMBOL res -752 368 R90
WINDOW 0 0 56 VBottom 2
WINDOW 3 32 56 VTop 2
SYMATTR InstName R4
SYMATTR Value 33k
SYMBOL res 1808 592 R0
SYMATTR InstName R10
SYMATTR Value 15m
SYMBOL res -816 464 R90
WINDOW 0 0 56 VBottom 2
WINDOW 3 32 56 VTop 2
SYMATTR InstName R3
SYMATTR Value 100k
SYMBOL res 2256 560 R180
WINDOW 0 36 76 Left 2
WINDOW 3 36 40 Left 2
SYMATTR InstName RLOAD
SYMATTR Value {RL}
SYMBOL BSC0921NDI_L1 1088 384 R0
WINDOW 0 390 -83 Bottom 2
WINDOW 3 470 -79 Top 2
SYMATTR InstName Q1
SYMATTR SpiceLine dVth=0 dRdson=0 dgfs=0 dC=0 Zthtype=0
SYMBOL cap -848 -96 R0
SYMATTR InstName C3
SYMATTR Value 1µ
SYMBOL cap -976 768 R0
SYMATTR InstName C15
SYMATTR Value 100p
SYMBOL ind 560 256 R270
WINDOW 0 32 56 VTop 2
WINDOW 3 5 56 VBottom 2
SYMATTR InstName L3
SYMATTR Value 500n
SYMATTR SpiceLine Rser=0.01
SYMBOL bv 464 384 R0
SYMATTR InstName VSUPPLY
SYMATTR Value V=20
TEXT 256 -168 Left 2 !.tran 0 0.3m 0.2m 1n startup
TEXT 256 -72 Left 2 !.options gmin=1e-10
TEXT 256 -104 Left 2 !.options abstol=1e-10
TEXT 256 -136 Left 2 !.options reltol=0.003
TEXT 248 40 Left 2 !.lib PowerStage5x6_30V.lib
TEXT 704 -88 Left 2 !.meas PIN AVG V(IN)*-I(VSUPPLY)
TEXT 704 -48 Left 2 !.meas POUT AVG V(VOUT+,VOUT-)*-I(RLOAD)
TEXT -648 -144 Left 2 ;LTC Control Chip
TEXT 1160 160 Left 2 ;Buck Power Circuit
TEXT 256 -208 Left 2 ;Simulation Settings
TEXT 248 8 Left 2 ;Included Library Files
TEXT 712 -120 Left 2 ;Measurement Commands
TEXT 704 -8 Left 2 !.meas Eff param POUT/PIN
TEXT 704 32 Left 2 !.meas IOUT AVG -I(RLOAD)
TEXT 704 72 Left 2 !.meas VOUT AVG V(VOUT+, VOUT-)
TEXT 264 -40 Left 2 !.ic V(5V)=5
TEXT 264 -248 Left 2 !.step param RL list 3 4 5
